1,   100.00, 33, 0, 0, 60.00     / PSS(R)E-33.7    MON, APR 10 2017   7:08


     1,'RIVERSDE  V2', 138.0000,2,   1,   1,   1,1.01505,  22.8857,1.10000,0.90000,1.10000,0.90000
     2,'POKAGON   V2', 138.0000,1,   1,   1,   1,1.02139,  23.0064,1.10000,0.90000,1.10000,0.90000
     3,'HICKRYCK  V2', 138.0000,1,   1,   1,   1,1.02196,  23.2788,1.10000,0.90000,1.10000,0.90000
     4,'NWCARLSL  V2', 138.0000,2,   1,   1,   1,1.03783,  25.0560,1.10000,0.90000,1.10000,0.90000
     5,'OLIVE     V2', 138.0000,1,   1,   1,   1,1.03925,  25.2814,1.10000,0.90000,1.10000,0.90000
     6,'KANKAKEE  V2', 138.0000,2,   1,   1,   1,1.02952,  23.9344,1.10000,0.90000,1.10000,0.90000
     7,'JACKSNRD  V2', 138.0000,1,   1,   1,   1,1.02883,  23.6600,1.10000,0.90000,1.10000,0.90000
     8,'OLIVE     V1', 345.0000,2,   1,   1,   1,1.04154,  27.8247,1.10000,0.90000,1.10000,0.90000
     9,'BEQUINE   V1', 345.0000,1,   1,   1,   1,1.05649,  31.5585,1.10000,0.90000,1.10000,0.90000
    10,'BREED     V1', 345.0000,2,   1,   1,   1,1.05000,  35.5881,1.10000,0.90000,1.10000,0.90000
    11,'SOUTHBND  V2', 138.0000,1,   1,   1,   1,1.02958,  23.7327,1.10000,0.90000,1.10000,0.90000
    12,'TWINBRCH  V2', 138.0000,2,   1,   1,   1,1.02827,  23.3718,1.10000,0.90000,1.10000,0.90000
    13,'CONCORD   V2', 138.0000,1,   1,   1,   1,1.02840,  23.1808,1.10000,0.90000,1.10000,0.90000
    14,'GOSHENJT  V2', 138.0000,1,   1,   1,   1,1.03292,  23.1441,1.10000,0.90000,1.10000,0.90000
    15,'FTWAYNE   V2', 138.0000,2,   1,   1,   1,1.04352,  23.3007,1.10000,0.90000,1.10000,0.90000
    16,'N. E.     V2', 138.0000,1,   1,   1,   1,1.03472,  23.3732,1.10000,0.90000,1.10000,0.90000
    17,'SORENSON  V2', 138.0000,1,   1,   1,   1,1.05570,  24.4531,1.10000,0.90000,1.10000,0.90000
    18,'MCKINLEY  V2', 138.0000,2,   1,   1,   1,1.04373,  23.5313,1.10000,0.90000,1.10000,0.90000
    19,'LINCOLN   V2', 138.0000,2,   1,   1,   1,1.04234,  23.2532,1.10000,0.90000,1.10000,0.90000
    20,'ADAMS     V2', 138.0000,1,   1,   1,   1,1.04253,  23.6668,1.10000,0.90000,1.10000,0.90000
    21,'JAY       V2', 138.0000,1,   1,   1,   1,1.04310,  24.3551,1.10000,0.90000,1.10000,0.90000
    22,'RANDOLPH  V2', 138.0000,1,   1,   1,   1,1.04647,  25.4570,1.10000,0.90000,1.10000,0.90000
    23,'COLLCRNR  V2', 138.0000,1,   1,   1,   1,1.05271,  27.6544,1.10000,0.90000,1.10000,0.90000
    24,'TRENTON   V2', 138.0000,2,   1,   1,   1,1.05257,  27.1222,1.10000,0.90000,1.10000,0.90000
    25,'TANNRSCK  V2', 138.0000,2,   1,   1,   1,1.05214,  31.6162,1.10000,0.90000,1.10000,0.90000
    26,'TANNRSCK  V1', 345.0000,2,   1,   1,   1,1.01500,  32.5384,1.10000,0.90000,1.10000,0.90000
    27,'MADISON   V2', 138.0000,2,   1,   1,   1,1.04139,  25.4716,1.10000,0.90000,1.10000,0.90000
    28,'MULLIN    V2', 138.0000,1,   1,   1,   1,1.03828,  24.6910,1.10000,0.90000,1.10000,0.90000
    29,'GRANT     V2', 138.0000,1,   1,   1,   1,1.03712,  24.2132,1.10000,0.90000,1.10000,0.90000
    30,'SORENSON  V1', 345.0000,1,   1,   1,   1,1.03045,  26.7607,1.10000,0.90000,1.10000,0.90000
    31,'DEERCRK   V2', 138.0000,2,   1,   1,   1,1.03771,  24.2400,1.10000,0.90000,1.10000,0.90000
    32,'DELAWARE  V2', 138.0000,2,   1,   1,   1,1.04214,  25.0935,1.10000,0.90000,1.10000,0.90000
    33,'HAVILAND  V2', 138.0000,1,   1,   1,   1,1.04644,  22.9746,1.10000,0.90000,1.10000,0.90000
    34,'ROCKHILL  V2', 138.0000,2,   1,   1,   1,1.05230,  23.1919,1.10000,0.90000,1.10000,0.90000
    35,'WESTLIMA  V2', 138.0000,1,   1,   1,   1,1.05020,  23.0179,1.10000,0.90000,1.10000,0.90000
    36,'STERLING  V2', 138.0000,2,   1,   1,   1,1.04992,  23.0188,1.10000,0.90000,1.10000,0.90000
    37,'EASTLIMA  V2', 138.0000,1,   1,   1,   1,1.05474,  23.3898,1.10000,0.90000,1.10000,0.90000
    38,'EASTLIMA  V1', 345.0000,1,   1,   1,   1,1.01321,  25.5718,1.10000,0.90000,1.10000,0.90000
    39,'NWLIBRTY  V2', 138.0000,1,   1,   1,   1,1.03476,  22.1136,1.10000,0.90000,1.10000,0.90000
    40,'WEST END  V2', 138.0000,2,   1,   1,   1,1.02742,  21.7486,1.10000,0.90000,1.10000,0.90000
    41,'S.TIFFIN  V2', 138.0000,1,   1,   1,   1,1.02285,  21.5756,1.10000,0.90000,1.10000,0.90000
    42,'HOWARD    V2', 138.0000,2,   1,   1,   1,1.02006,  22.3247,1.10000,0.90000,1.10000,0.90000
    43,'S.KENTON  V2', 138.0000,1,   1,   1,   1,1.05000,  22.9827,1.10000,0.90000,1.10000,0.90000
    44,'WMVERNON  V2', 138.0000,1,   1,   1,   1,1.04598,  23.8268,1.10000,0.90000,1.10000,0.90000
    45,'N.NEWARK  V2', 138.0000,1,   1,   1,   1,1.03613,  24.6356,1.10000,0.90000,1.10000,0.90000
    46,'W.LANCST  V2', 138.0000,2,   1,   1,   1,1.03583,  25.7211,1.10000,0.90000,1.10000,0.90000
    47,'CROOKSVL  V2', 138.0000,1,   1,   1,   1,1.02960,  27.0662,1.10000,0.90000,1.10000,0.90000
    48,'ZANESVLL  V2', 138.0000,1,   1,   1,   1,1.03116,  26.9463,1.10000,0.90000,1.10000,0.90000
    49,'PHILO     V2', 138.0000,2,   1,   1,   1,1.02500,  27.6739,1.10000,0.90000,1.10000,0.90000
    50,'WCAMBRDG  V2', 138.0000,1,   1,   1,   1,1.00722,  26.9671,1.10000,0.90000,1.10000,0.90000
    51,'NEWCMRST  V2', 138.0000,1,   1,   1,   1,0.98248,  26.1152,1.10000,0.90000,1.10000,0.90000
    52,'SCOSHOCT  V2', 138.0000,1,   1,   1,   1,0.97536,  25.7954,1.10000,0.90000,1.10000,0.90000
    53,'WOOSTER   V2', 138.0000,1,   1,   1,   1,0.96057,  25.6565,1.10000,0.90000,1.10000,0.90000
    54,'TORREY    V2', 138.0000,2,   1,   1,   1,0.95500,  26.3188,1.10000,0.90000,1.10000,0.90000
    55,'WAGENHLS  V2', 138.0000,2,   1,   1,   1,0.95754,  26.0217,1.10000,0.90000,1.10000,0.90000
    56,'SUNNYSDE  V2', 138.0000,2,   1,   1,   1,0.95845,  26.1284,1.10000,0.90000,1.10000,0.90000
    57,'WNWPHIL1  V2', 138.0000,1,   1,   1,   1,0.97850,  26.2850,1.10000,0.90000,1.10000,0.90000
    58,'WNWPHIL2  V2', 138.0000,1,   1,   1,   1,0.97163,  25.9755,1.10000,0.90000,1.10000,0.90000
    59,'TIDD      V2', 138.0000,2,   1,   1,   1,0.98500,  27.3078,1.10000,0.90000,1.10000,0.90000
    60,'SWKAMMER  V2', 138.0000,1,   1,   1,   1,0.99511,  28.6731,1.10000,0.90000,1.10000,0.90000
    61,'W.KAMMER  V2', 138.0000,2,   1,   1,   1,0.99500,  29.0717,1.10000,0.90000,1.10000,0.90000
    62,'NATRIUM   V2', 138.0000,2,   1,   1,   1,1.00248,  28.7251,1.10000,0.90000,1.10000,0.90000
    63,'TIDD      V1', 345.0000,1,   1,   1,   1,0.97211,  28.4526,1.10000,0.90000,1.10000,0.90000
    64,'KAMMER    V1', 345.0000,1,   1,   1,   1,0.98598,  29.0053,1.10000,0.90000,1.10000,0.90000
    65,'MUSKNGUM  V1', 345.0000,2,   1,   1,   1,1.00500,  29.7440,1.10000,0.90000,1.10000,0.90000
    66,'MUSKNGUM  V2', 138.0000,2,   1,   1,   1,1.05000,  30.3380,1.10000,0.90000,1.10000,0.90000
    67,'SUMMERFL  V2', 138.0000,1,   1,   1,   1,1.02616,  29.2232,1.10000,0.90000,1.10000,0.90000
    68,'SPORN     V1', 345.0000,1,   1,   1,   1,0.99827,  28.6903,1.10000,0.90000,1.10000,0.90000
    69,'SPORN     V2', 138.0000,3,   1,   1,   1,1.03500,  30.0000,1.10000,0.90000,1.10000,0.90000
    70,'PORTSMTH  V2', 138.0000,2,   1,   1,   1,1.03244,  26.1198,1.10000,0.90000,1.10000,0.90000
    71,'NPORTSMT  V2', 138.0000,1,   1,   1,   1,1.03584,  26.0801,1.10000,0.90000,1.10000,0.90000
    72,'HILLSBRO  V2', 138.0000,2,   1,   1,   1,1.04711,  26.2457,1.10000,0.90000,1.10000,0.90000
    73,'SARGENTS  V2', 138.0000,2,   1,   1,   1,1.03588,  26.0094,1.10000,0.90000,1.10000,0.90000
    74,'BELLEFNT  V2', 138.0000,2,   1,   1,   1,1.02121,  24.9947,1.10000,0.90000,1.10000,0.90000
    75,'STHPOINT  V2', 138.0000,1,   1,   1,   1,1.02078,  25.3681,1.10000,0.90000,1.10000,0.90000
    76,'DARRAH    V2', 138.0000,2,   1,   1,   1,1.00631,  23.9414,1.10000,0.90000,1.10000,0.90000
    77,'TURNER    V2', 138.0000,2,   1,   1,   1,1.02783,  24.6669,1.10000,0.90000,1.10000,0.90000
    78,'CHEMICAL  V2', 138.0000,1,   1,   1,   1,1.02734,  24.5069,1.10000,0.90000,1.10000,0.90000
    79,'CAPITLHL  V2', 138.0000,1,   1,   1,   1,1.03121,  24.5991,1.10000,0.90000,1.10000,0.90000
    80,'CABINCRK  V2', 138.0000,2,   1,   1,   1,1.04000,  25.6102,1.10000,0.90000,1.10000,0.90000
    81,'KANAWHA   V1', 345.0000,1,   1,   1,   1,0.99188,  27.5391,1.10000,0.90000,1.10000,0.90000
    82,'LOGAN     V2', 138.0000,1,   1,   1,   1,1.01705,  20.1917,1.10000,0.90000,1.10000,0.90000
    83,'SPRIGG    V2', 138.0000,1,   1,   1,   1,1.01234,  18.7157,1.10000,0.90000,1.10000,0.90000
    84,'BETSYLNE  V2', 138.0000,1,   1,   1,   1,0.99866,  16.7211,1.10000,0.90000,1.10000,0.90000
    85,'BEAVERCK  V2', 138.0000,1,   1,   1,   1,0.99488,  15.9014,1.10000,0.90000,1.10000,0.90000
    86,'HAZARD    V2', 138.0000,1,   1,   1,   1,0.99271,  15.1818,1.10000,0.90000,1.10000,0.90000
    87,'PINEVLLE  V3', 161.0000,1,   1,   1,   1,0.99271,  15.1824,1.10000,0.90000,1.10000,0.90000
    88,'FREMONT   V2', 138.0000,1,   1,   1,   1,0.99133,  14.6488,1.10000,0.90000,1.10000,0.90000
    89,'CLINCHRV  V2', 138.0000,1,   1,   1,   1,0.99385,  14.6798,1.10000,0.90000,1.10000,0.90000
    90,'HOLSTON   V2', 138.0000,1,   1,   1,   1,0.97843,  12.6769,1.10000,0.90000,1.10000,0.90000
    91,'HOLSTONT  V2', 138.0000,1,   1,   1,   1,0.98619,  13.7119,1.10000,0.90000,1.10000,0.90000
    92,'SALTVLLE  V2', 138.0000,1,   1,   1,   1,0.99725,  15.6617,1.10000,0.90000,1.10000,0.90000
    93,'TAZEWELL  V2', 138.0000,1,   1,   1,   1,1.00167,  17.1642,1.10000,0.90000,1.10000,0.90000
    94,'SWITCHBK  V2', 138.0000,1,   1,   1,   1,1.00828,  18.6635,1.10000,0.90000,1.10000,0.90000
    95,'CALDWELL  V2', 138.0000,1,   1,   1,   1,1.00720,  19.2366,1.10000,0.90000,1.10000,0.90000
    96,'BAILEYSV  V2', 138.0000,1,   1,   1,   1,1.01668,  20.4282,1.10000,0.90000,1.10000,0.90000
    97,'SUNDIAL   V2', 138.0000,1,   1,   1,   1,1.02565,  22.8138,1.10000,0.90000,1.10000,0.90000
    98,'BRADLEY   V2', 138.0000,1,   1,   1,   1,1.02784,  22.7396,1.10000,0.90000,1.10000,0.90000
    99,'HINTON    V2', 138.0000,2,   1,   1,   1,1.02205,  20.5556,1.10000,0.90000,1.10000,0.90000
   100,'GLEN LYN  V2', 138.0000,2,   1,   1,   1,1.01700,  19.4337,1.10000,0.90000,1.10000,0.90000
   101,'WYTHE     V2', 138.0000,1,   1,   1,   1,1.00365,  17.4157,1.10000,0.90000,1.10000,0.90000
   102,'SMYTHE    V2', 138.0000,1,   1,   1,   1,0.99939,  16.1946,1.10000,0.90000,1.10000,0.90000
   103,'CLAYTOR   V2', 138.0000,2,   1,   1,   1,1.01000,  18.0767,1.10000,0.90000,1.10000,0.90000
   104,'HANCOCK   V2', 138.0000,2,   1,   1,   1,1.00325,  16.7287,1.10000,0.90000,1.10000,0.90000
   105,'ROANOKE   V2', 138.0000,2,   1,   1,   1,1.00336,  16.2426,1.10000,0.90000,1.10000,0.90000
   106,'CLOVERDL  V2', 138.0000,1,   1,   1,   1,1.00255,  16.0808,1.10000,0.90000,1.10000,0.90000
   107,'REUSENS   V2', 138.0000,2,   1,   1,   1,1.00125,  14.8687,1.10000,0.90000,1.10000,0.90000
   108,'BLAINE    V2', 138.0000,1,   1,   1,   1,0.99544,  16.0444,1.10000,0.90000,1.10000,0.90000
   109,'FRANKLIN  V2', 138.0000,1,   1,   1,   1,0.99207,  15.9820,1.10000,0.90000,1.10000,0.90000
   110,'FIELDALE  V2', 138.0000,2,   1,   1,   1,0.98423,  15.9810,1.10000,0.90000,1.10000,0.90000
   111,'DANRIVER  V2', 138.0000,2,   1,   1,   1,0.98000,  17.2650,1.10000,0.90000,1.10000,0.90000
   112,'DANVILLE  V2', 138.0000,2,   1,   1,   1,0.97395,  14.8161,1.10000,0.90000,1.10000,0.90000
   113,'DEER CRK  V2', 138.0000,2,   1,   1,   1,1.05455,  24.4837,1.10000,0.90000,1.10000,0.90000
   114,'WMEDFORD  V2', 138.0000,1,   1,   1,   1,1.04011,  25.0228,1.10000,0.90000,1.10000,0.90000
   115,'MEDFORD   V2', 138.0000,1,   1,   1,   1,1.03989,  25.0308,1.10000,0.90000,1.10000,0.90000
   116,'KYGERCRK  V2', 138.0000,2,   1,   1,   1,0.99797,  28.4908,1.10000,0.90000,1.10000,0.90000
   117,'COREY     V2', 138.0000,1,   1,   1,   1,1.02267,  22.6948,1.10000,0.90000,1.10000,0.90000
   118,'WHUNTNGD  V2', 138.0000,1,   1,   1,   1,1.01131,  24.5090,1.10000,0.90000,1.10000,0.90000
0 / END OF BUS DATA, BEGIN LOAD DATA
     1,'1 ',1,   1,   1,    23.746,    12.572,     0.000,     0.000,     0.000,     0.000,   1,1,0
     2,'1 ',1,   1,   1,     9.312,     4.191,     0.000,     0.000,     0.000,     0.000,   1,1,0
     3,'1 ',1,   1,   1,    18.159,     4.656,     0.000,     0.000,     0.000,     0.000,   1,1,0
     4,'1 ',1,   1,   1,    18.159,     5.587,     0.000,     0.000,     0.000,     0.000,   1,1,0
     6,'1 ',1,   1,   1,    24.212,    10.243,     0.000,     0.000,     0.000,     0.000,   1,1,0
     7,'1 ',1,   1,   1,     8.847,     0.931,     0.000,     0.000,     0.000,     0.000,   1,1,0
     8,'1 ',1,   1,   1,    13.037,     0.000,     0.000,     0.000,     0.000,     0.000,   1,1,0
    11,'1 ',1,   1,   1,    32.593,    10.709,     0.000,     0.000,     0.000,     0.000,   1,1,0
    12,'1 ',1,   1,   1,    21.884,     4.656,     0.000,     0.000,     0.000,     0.000,   1,1,0
    13,'1 ',1,   1,   1,    15.831,     7.450,     0.000,     0.000,     0.000,     0.000,   1,1,0
    14,'1 ',1,   1,   1,     6.519,     0.466,     0.000,     0.000,     0.000,     0.000,   1,1,0
    15,'1 ',1,   1,   1,    41.905,    13.968,     0.000,     0.000,     0.000,     0.000,   1,1,0
    16,'1 ',1,   1,   1,    11.640,     4.656,     0.000,     0.000,     0.000,     0.000,   1,1,0
    17,'1 ',1,   1,   1,     5.122,     1.397,     0.000,     0.000,     0.000,     0.000,   1,1,0
    18,'1 ',1,   1,   1,    27.937,    15.831,     0.000,     0.000,     0.000,     0.000,   1,1,0
    19,'1 ',1,   1,   1,    20.953,    11.640,     0.000,     0.000,     0.000,     0.000,   1,1,0
    20,'1 ',1,   1,   1,     8.381,     1.397,     0.000,     0.000,     0.000,     0.000,   1,1,0
    21,'1 ',1,   1,   1,     6.519,     3.725,     0.000,     0.000,     0.000,     0.000,   1,1,0
    22,'1 ',1,   1,   1,     4.656,     2.328,     0.000,     0.000,     0.000,     0.000,   1,1,0
    23,'1 ',1,   1,   1,     3.259,     1.397,     0.000,     0.000,     0.000,     0.000,   1,1,0
    24,'1 ',1,   1,   1,     6.053,     0.000,     0.000,     0.000,     0.000,     0.000,   1,1,0
    27,'1 ',1,   1,   1,    33.058,     6.053,     0.000,     0.000,     0.000,     0.000,   1,1,0
    28,'1 ',1,   1,   1,     7.915,     3.259,     0.000,     0.000,     0.000,     0.000,   1,1,0
    29,'1 ',1,   1,   1,    11.175,     1.862,     0.000,     0.000,     0.000,     0.000,   1,1,0
    31,'1 ',1,   1,   1,    20.021,    12.572,     0.000,     0.000,     0.000,     0.000,   1,1,0
    32,'1 ',1,   1,   1,    27.471,    10.709,     0.000,     0.000,     0.000,     0.000,   1,1,0
    33,'1 ',1,   1,   1,    10.709,     4.191,     0.000,     0.000,     0.000,     0.000,   1,1,0
    34,'1 ',1,   1,   1,    27.471,    12.106,     0.000,     0.000,     0.000,     0.000,   1,1,0
    35,'1 ',1,   1,   1,    15.365,     4.191,     0.000,     0.000,     0.000,     0.000,   1,1,0
    36,'1 ',1,   1,   1,    14.434,     7.915,     0.000,     0.000,     0.000,     0.000,   1,1,0
    39,'1 ',1,   1,   1,    12.592,     5.130,     0.000,     0.000,     0.000,     0.000,   1,1,0
    40,'1 ',1,   1,   1,    30.781,    10.727,     0.000,     0.000,     0.000,     0.000,   1,1,0
    41,'1 ',1,   1,   1,    17.256,     4.664,     0.000,     0.000,     0.000,     0.000,   1,1,0
    42,'1 ',1,   1,   1,    44.773,    10.727,     0.000,     0.000,     0.000,     0.000,   1,1,0
    43,'1 ',1,   1,   1,     8.395,     3.265,     0.000,     0.000,     0.000,     0.000,   1,1,0
    44,'1 ',1,   1,   1,     7.462,     3.731,     0.000,     0.000,     0.000,     0.000,   1,1,0
    45,'1 ',1,   1,   1,    24.718,    10.260,     0.000,     0.000,     0.000,     0.000,   1,1,0
    46,'1 ',1,   1,   1,    13.059,     4.664,     0.000,     0.000,     0.000,     0.000,   1,1,0
    47,'1 ',1,   1,   1,    15.857,     0.000,     0.000,     0.000,     0.000,     0.000,   1,1,0
    48,'1 ',1,   1,   1,     9.328,     5.130,     0.000,     0.000,     0.000,     0.000,   1,1,0
    49,'1 ',1,   1,   1,    40.575,    13.991,     0.000,     0.000,     0.000,     0.000,   1,1,0
    50,'1 ',1,   1,   1,     7.929,     1.866,     0.000,     0.000,     0.000,     0.000,   1,1,0
    51,'1 ',1,   1,   1,     7.929,     3.731,     0.000,     0.000,     0.000,     0.000,   1,1,0
    52,'1 ',1,   1,   1,     8.395,     2.332,     0.000,     0.000,     0.000,     0.000,   1,1,0
    53,'1 ',1,   1,   1,    10.727,     5.130,     0.000,     0.000,     0.000,     0.000,   1,1,0
    54,'1 ',1,   1,   1,    52.701,    14.924,     0.000,     0.000,     0.000,     0.000,   1,1,0
    55,'1 ',1,   1,   1,    29.382,    10.260,     0.000,     0.000,     0.000,     0.000,   1,1,0
    56,'1 ',1,   1,   1,    39.176,     8.395,     0.000,     0.000,     0.000,     0.000,   1,1,0
    57,'1 ',1,   1,   1,     5.597,     1.399,     0.000,     0.000,     0.000,     0.000,   1,1,0
    58,'1 ',1,   1,   1,     5.597,     1.399,     0.000,     0.000,     0.000,     0.000,   1,1,0
    59,'1 ',1,   1,   1,   129.190,    52.701,     0.000,     0.000,     0.000,     0.000,   1,1,0
    60,'1 ',1,   1,   1,    36.378,     1.399,     0.000,     0.000,     0.000,     0.000,   1,1,0
    62,'1 ',1,   1,   1,    35.911,     6.529,     0.000,     0.000,     0.000,     0.000,   1,1,0
    66,'1 ',1,   1,   1,    18.189,     8.395,     0.000,     0.000,     0.000,     0.000,   1,1,0
    67,'1 ',1,   1,   1,    13.059,     3.265,     0.000,     0.000,     0.000,     0.000,   1,1,0
    70,'1 ',1,   1,   1,    30.781,     9.328,     0.000,     0.000,     0.000,     0.000,   1,1,0
    72,'1 ',1,   1,   1,     5.597,     0.000,     0.000,     0.000,     0.000,     0.000,   1,1,0
    73,'1 ',1,   1,   1,     2.798,     0.000,     0.000,     0.000,     0.000,     0.000,   1,1,0
    74,'1 ',1,   1,   1,    31.714,    12.592,     0.000,     0.000,     0.000,     0.000,   1,1,0
    75,'1 ',1,   1,   1,    21.920,     5.130,     0.000,     0.000,     0.000,     0.000,   1,1,0
    76,'1 ',1,   1,   1,    31.652,    16.757,     0.000,     0.000,     0.000,     0.000,   1,1,0
    77,'1 ',1,   1,   1,    28.393,    13.033,     0.000,     0.000,     0.000,     0.000,   1,1,0
    78,'1 ',1,   1,   1,    33.048,    12.102,     0.000,     0.000,     0.000,     0.000,   1,1,0
    79,'1 ',1,   1,   1,    18.153,    14.895,     0.000,     0.000,     0.000,     0.000,   1,1,0
    80,'1 ',1,   1,   1,    60.510,    12.102,     0.000,     0.000,     0.000,     0.000,   1,1,0
    82,'1 ',1,   1,   1,    25.135,    12.568,     0.000,     0.000,     0.000,     0.000,   1,1,0
    83,'1 ',1,   1,   1,     9.309,     4.655,     0.000,     0.000,     0.000,     0.000,   1,1,0
    84,'1 ',1,   1,   1,     5.120,     3.258,     0.000,     0.000,     0.000,     0.000,   1,1,0
    85,'1 ',1,   1,   1,    11.171,     6.982,     0.000,     0.000,     0.000,     0.000,   1,1,0
    86,'1 ',1,   1,   1,     9.775,     4.655,     0.000,     0.000,     0.000,     0.000,   1,1,0
    88,'1 ',1,   1,   1,    22.342,     4.655,     0.000,     0.000,     0.000,     0.000,   1,1,0
    90,'1 ',1,   1,   1,    75.871,    19.550,     0.000,     0.000,     0.000,     0.000,   1,1,0
    91,'1 ',1,   1,   1,     4.655,     0.000,     0.000,     0.000,     0.000,     0.000,   1,1,0
    92,'1 ',1,   1,   1,    30.255,     4.655,     0.000,     0.000,     0.000,     0.000,   1,1,0
    93,'1 ',1,   1,   1,     5.586,     3.258,     0.000,     0.000,     0.000,     0.000,   1,1,0
    94,'1 ',1,   1,   1,    13.964,     7.447,     0.000,     0.000,     0.000,     0.000,   1,1,0
    95,'1 ',1,   1,   1,    19.550,    14.429,     0.000,     0.000,     0.000,     0.000,   1,1,0
    96,'1 ',1,   1,   1,    17.688,     6.982,     0.000,     0.000,     0.000,     0.000,   1,1,0
    97,'1 ',1,   1,   1,     6.982,     4.189,     0.000,     0.000,     0.000,     0.000,   1,1,0
    98,'1 ',1,   1,   1,    15.826,     3.724,     0.000,     0.000,     0.000,     0.000,   1,1,0
    99,'1 ',1,   1,   1,    19.550,     0.000,     0.000,     0.000,     0.000,     0.000,   1,1,0
   100,'1 ',1,   1,   1,    17.222,     8.378,     0.000,     0.000,     0.000,     0.000,   1,1,0
   101,'1 ',1,   1,   1,    10.240,     6.982,     0.000,     0.000,     0.000,     0.000,   1,1,0
   102,'1 ',1,   1,   1,     2.327,     1.396,     0.000,     0.000,     0.000,     0.000,   1,1,0
   103,'1 ',1,   1,   1,    10.706,     7.447,     0.000,     0.000,     0.000,     0.000,   1,1,0
   104,'1 ',1,   1,   1,    17.688,    11.637,     0.000,     0.000,     0.000,     0.000,   1,1,0
   105,'1 ',1,   1,   1,    14.429,    12.102,     0.000,     0.000,     0.000,     0.000,   1,1,0
   106,'1 ',1,   1,   1,    20.015,     7.447,     0.000,     0.000,     0.000,     0.000,   1,1,0
   107,'1 ',1,   1,   1,    23.273,     5.586,     0.000,     0.000,     0.000,     0.000,   1,1,0
   108,'1 ',1,   1,   1,     0.931,     0.465,     0.000,     0.000,     0.000,     0.000,   1,1,0
   109,'1 ',1,   1,   1,     3.724,     1.396,     0.000,     0.000,     0.000,     0.000,   1,1,0
   110,'1 ',1,   1,   1,    18.153,    13.964,     0.000,     0.000,     0.000,     0.000,   1,1,0
   112,'1 ',1,   1,   1,    31.652,     6.051,     0.000,     0.000,     0.000,     0.000,   1,1,0
   113,'1 ',1,   1,   1,     2.793,     0.000,     0.000,     0.000,     0.000,     0.000,   1,1,0
   114,'1 ',1,   1,   1,     3.724,     1.396,     0.000,     0.000,     0.000,     0.000,   1,1,0
   115,'1 ',1,   1,   1,    10.240,     3.258,     0.000,     0.000,     0.000,     0.000,   1,1,0
   116,'1 ',1,   1,   1,    85.646,     0.000,     0.000,     0.000,     0.000,     0.000,   1,1,0
   117,'1 ',1,   1,   1,     9.309,     3.724,     0.000,     0.000,     0.000,     0.000,   1,1,0
   118,'1 ',1,   1,   1,    15.360,     6.982,     0.000,     0.000,     0.000,     0.000,   1,1,0
0 / END OF LOAD DATA, BEGIN FIXED SHUNT DATA
0 / END OF FIXED SHUNT DATA, BEGIN GENERATOR DATA
     1,'1 ',     0.000,    -5.000,    15.000,    -5.000,0.95500,     0,   100.000, 0.00000E+0, 1.80000E-1, 0.00000E+0, 0.00000E+0,1.00000,1,  100.0,   100.000,     0.000,   1,1.0000
     4,'1 ',     0.000,     0.000,   300.000,  -300.000,0.99800,     0,   100.000, 0.00000E+0, 1.80000E-1, 0.00000E+0, 0.00000E+0,1.00000,0,  100.0,   100.000,     5.000,   1,1.0000
     6,'1 ',     0.000,     0.000,    50.000,   -13.000,0.99000,     0,   100.000, 0.00000E+0, 1.80000E-1, 0.00000E+0, 0.00000E+0,1.00000,0,  100.0,   100.000,     5.000,   1,1.0000
     8,'1 ',     0.000,     0.000,   300.000,  -300.000,1.01500,     0,   100.000, 0.00000E+0, 1.80000E-1, 0.00000E+0, 0.00000E+0,1.00000,0,  100.0,   100.000,     5.000,   1,1.0000
    10,'1 ',   239.540,   -75.952,   200.000,  -147.000,1.05000,     0,   550.000, 0.00000E+0, 1.80000E-1, 0.00000E+0, 0.00000E+0,1.00000,1,  100.0,   550.000,   150.000,   1,1.0000
    12,'1 ',     0.000,     0.000,   120.000,   -35.000,0.99000,     0,   100.000, 0.00000E+0, 1.80000E-1, 0.00000E+0, 0.00000E+0,1.00000,0,  100.0,   185.000,   100.000,   1,1.0000
    15,'1 ',     0.000,     0.000,    30.000,   -10.000,0.97000,     0,   100.000, 0.00000E+0, 1.80000E-1, 0.00000E+0, 0.00000E+0,1.00000,0,  100.0,   100.000,    10.000,   1,1.0000
    18,'1 ',     0.000,     0.000,    50.000,   -16.000,0.97300,     0,   100.000, 0.00000E+0, 1.80000E-1, 0.00000E+0, 0.00000E+0,1.00000,0,  100.0,   100.000,    25.000,   1,1.0000
    19,'1 ',     0.000,     0.000,    24.000,    -8.000,0.96200,     0,   100.000, 0.00000E+0, 1.80000E-1, 0.00000E+0, 0.00000E+0,1.00000,0,  100.0,   100.000,     5.000,   1,1.0000
    24,'1 ',     0.000,     0.000,   300.000,  -300.000,0.99200,     0,   100.000, 0.00000E+0, 1.80000E-1, 0.00000E+0, 0.00000E+0,1.00000,0,  100.0,   100.000,     5.000,   1,1.0000
    25,'1 ',   117.110,   -47.000,   140.000,   -47.000,1.05000,     0,   320.000, 0.00000E+0, 1.80000E-1, 0.00000E+0, 0.00000E+0,1.00000,1,  100.0,   320.000,   100.000,   1,1.0000
    26,'1 ',   167.140,   -55.353,  1000.000, -1000.000,1.01500,     0,   414.000, 0.00000E+0, 1.80000E-1, 0.00000E+0, 0.00000E+0,1.00000,1,  100.0,   414.000,   100.000,   1,1.0000
    27,'1 ',     0.000,     0.000,   300.000,  -300.000,0.96800,     0,   100.000, 0.00000E+0, 1.80000E-1, 0.00000E+0, 0.00000E+0,1.00000,0,  100.0,   100.000,     8.000,   1,1.0000
    31,'1 ',     0.000,     0.000,   300.000,  -300.000,0.96700,     0,   100.000, 0.00000E+0, 1.80000E-1, 0.00000E+0, 0.00000E+0,1.00000,0,  100.0,   107.000,     8.000,   1,1.0000
    32,'1 ',     0.000,     0.000,    42.000,   -14.000,0.96300,     0,   100.000, 0.00000E+0, 1.80000E-1, 0.00000E+0, 0.00000E+0,1.00000,0,  100.0,   100.000,    25.000,   1,1.0000
    34,'1 ',     0.000,     0.000,    24.000,    -8.000,0.98400,     0,   100.000, 0.00000E+0, 1.80000E-1, 0.00000E+0, 0.00000E+0,1.00000,0,  100.0,   100.000,     8.000,   1,1.0000
    36,'1 ',     0.000,     0.000,    24.000,    -8.000,0.98000,     0,   100.000, 0.00000E+0, 1.80000E-1, 0.00000E+0, 0.00000E+0,1.00000,0,  100.0,   100.000,    25.000,   1,1.0000
    40,'1 ',     0.000,     0.000,   300.000,  -300.000,0.97000,     0,   100.000, 0.00000E+0, 1.80000E-1, 0.00000E+0, 0.00000E+0,1.00000,0,  100.0,   100.000,     8.000,   1,1.0000
    42,'1 ',     0.000,     0.000,   300.000,  -300.000,0.98500,     0,   100.000, 0.00000E+0, 1.80000E-1, 0.00000E+0, 0.00000E+0,1.00000,0,  100.0,   100.000,     8.000,   1,1.0000
    46,'1 ',     0.000,     0.000,   100.000,  -100.000,1.00500,     0,   100.000, 0.00000E+0, 1.80000E-1, 0.00000E+0, 0.00000E+0,1.00000,0,  100.0,   119.000,    25.000,   1,1.0000
    49,'1 ',   108.590,   -18.168,   210.000,   -85.000,1.02500,     0,   304.000, 0.00000E+0, 1.80000E-1, 0.00000E+0, 0.00000E+0,1.00000,1,  100.0,   304.000,    50.000,   1,1.0000
    54,'1 ',    50.000,   -97.107,   300.000,  -300.000,0.95500,     0,   148.000, 0.00000E+0, 1.80000E-1, 0.00000E+0, 0.00000E+0,1.00000,1,  100.0,   148.000,    50.000,   1,1.0000
    55,'1 ',     0.000,     0.000,    23.000,    -8.000,0.95200,     0,   100.000, 0.00000E+0, 1.80000E-1, 0.00000E+0, 0.00000E+0,1.00000,0,  100.0,   100.000,    25.000,   1,1.0000
    56,'1 ',     0.000,     0.000,    15.000,    -8.000,0.95400,     0,   100.000, 0.00000E+0, 1.80000E-1, 0.00000E+0, 0.00000E+0,1.00000,0,  100.0,   100.000,    25.000,   1,1.0000
    59,'1 ',    82.510,    -1.246,   180.000,   -60.000,0.98500,     0,   255.000, 0.00000E+0, 1.80000E-1, 0.00000E+0, 0.00000E+0,1.00000,1,  100.0,   255.000,    50.000,   1,1.0000
    61,'1 ',    85.170,   -55.413,   300.000,  -100.000,0.99500,     0,   260.000, 0.00000E+0, 1.80000E-1, 0.00000E+0, 0.00000E+0,1.00000,1,  100.0,   260.000,    50.000,   1,1.0000
    62,'1 ',     0.000,     0.000,    20.000,   -20.000,0.99800,     0,   100.000, 0.00000E+0, 1.80000E-1, 0.00000E+0, 0.00000E+0,1.00000,0,  100.0,   100.000,    25.000,   1,1.0000
    65,'1 ',   208.130,    48.263,   200.000,   -67.000,1.00500,     0,   500.000, 0.00000E+0, 1.80000E-1, 0.00000E+0, 0.00000E+0,1.00000,1,  100.0,   491.000,   100.000,   1,1.0000
    66,'1 ',   208.660,     6.016,   200.000,   -67.000,1.05000,     0,   500.000, 0.00000E+0, 1.80000E-1, 0.00000E+0, 0.00000E+0,1.00000,1,  100.0,   492.000,   100.000,   1,1.0000
    69,'1 ',   315.182,  -154.187,   300.000,  -300.000,1.03500,     0,   810.000, 0.00000E+0, 1.80000E-1, 0.00000E+0, 0.00000E+0,1.00000,1,  100.0,   805.200,    80.000,   1,1.0000
    70,'1 ',     0.000,     0.000,    32.000,   -10.000,0.98400,     0,   100.000, 0.00000E+0, 1.80000E-1, 0.00000E+0, 0.00000E+0,1.00000,0,  100.0,   100.000,    30.000,   1,1.0000
    72,'1 ',     0.000,     0.000,   100.000,  -100.000,0.98000,     0,   100.000, 0.00000E+0, 1.80000E-1, 0.00000E+0, 0.00000E+0,1.00000,0,  100.0,   100.000,    10.000,   1,1.0000
    73,'1 ',     0.000,     0.000,   100.000,  -100.000,0.99100,     0,   100.000, 0.00000E+0, 1.80000E-1, 0.00000E+0, 0.00000E+0,1.00000,0,  100.0,   100.000,     5.000,   1,1.0000
    74,'1 ',     0.000,     0.000,     9.000,    -6.000,0.95800,     0,   100.000, 0.00000E+0, 1.80000E-1, 0.00000E+0, 0.00000E+0,1.00000,0,  100.0,   100.000,     5.000,   1,1.0000
    76,'1 ',     0.000,     0.000,    23.000,    -8.000,0.94300,     0,   100.000, 0.00000E+0, 1.80000E-1, 0.00000E+0, 0.00000E+0,1.00000,0,  100.0,   100.000,    25.000,   1,1.0000
    77,'1 ',     0.000,     0.000,    70.000,   -20.000,1.00600,     0,   100.000, 0.00000E+0, 1.80000E-1, 0.00000E+0, 0.00000E+0,1.00000,0,  100.0,   100.000,    25.000,   1,1.0000
    80,'1 ',   253.910,   -17.702,   280.000,  -165.000,1.04000,     0,   600.000, 0.00000E+0, 1.80000E-1, 0.00000E+0, 0.00000E+0,1.00000,1,  100.0,   577.000,   150.000,   1,1.0000
    99,'1 ',     0.000,     0.000,   100.000,  -100.000,1.01000,     0,   100.000, 0.00000E+0, 1.80000E-1, 0.00000E+0, 0.00000E+0,1.00000,0,  100.0,   100.000,   100.000,   1,1.0000
   100,'1 ',   134.140,     7.500,   155.000,   -50.000,1.01700,     0,   352.000, 0.00000E+0, 1.80000E-1, 0.00000E+0, 0.00000E+0,1.00000,1,  100.0,   352.000,   100.000,   1,1.0000
   103,'1 ',    21.290,     7.384,    40.000,   -15.000,1.01000,     0,   140.000, 0.00000E+0, 1.80000E-1, 0.00000E+0, 0.00000E+0,1.00000,1,  100.0,   140.000,     8.000,   1,1.0000
   104,'1 ',     0.000,     0.000,    23.000,    -8.000,0.97100,     0,   100.000, 0.00000E+0, 1.80000E-1, 0.00000E+0, 0.00000E+0,1.00000,0,  100.0,   100.000,    25.000,   1,1.0000
   105,'1 ',     0.000,     0.000,    23.000,    -8.000,0.96500,     0,   100.000, 0.00000E+0, 1.80000E-1, 0.00000E+0, 0.00000E+0,1.00000,0,  100.0,   100.000,    25.000,   1,1.0000
   107,'1 ',     0.000,     0.000,   200.000,  -200.000,0.95200,     0,   100.000, 0.00000E+0, 1.80000E-1, 0.00000E+0, 0.00000E+0,1.00000,0,  100.0,   100.000,     8.000,   1,1.0000
   110,'1 ',     0.000,     0.000,    23.000,    -8.000,0.97300,     0,   100.000, 0.00000E+0, 1.80000E-1, 0.00000E+0, 0.00000E+0,1.00000,0,  100.0,   100.000,    25.000,   1,1.0000
   111,'1 ',    25.000,   -13.411,  1000.000,  -100.000,0.98000,     0,   136.000, 0.00000E+0, 1.80000E-1, 0.00000E+0, 0.00000E+0,1.00000,1,  100.0,   136.000,    25.000,   1,1.0000